## avogadro generated ORCA input file 
# Advanced Mode
# 
  
! BLYP def2-TZVP  OPT 
! SlowConv


# Geometry optimization and DFT calculation with PBF functional and Becking-Johnson Damping scheme (including Dispersion interactions D3BJ)
# Basis set def2-TZVPP
%scf
	MaxIter 500	
# maximum number of iterations for SCF procedure
end 
%geom MaxIter 500
     end
! NumFreq
# Perform frequency analysis for free energy calculations

%elprop
Polar 1
end
! CPCM(Water)

%output
        Print[P_Basis] 2
	Print[P_MOs] 1
end
* xyz 1 2
N         19.14200       44.85500      -21.91500
C         18.40900       44.49000      -23.16200
C         18.73300       45.35500      -24.39500
O         18.21800       45.02900      -25.48000
C         16.89000       44.39000      -23.05100
C         16.44700       43.40800      -21.97000
O         17.25000       42.56200      -21.56600
O         15.26100       43.44400      -21.60600
H         20.02200       44.38600      -21.75200
N         24.82700       40.38600      -21.71700
C         23.54800       39.89100      -21.24500
C         23.16100       38.64300      -22.07500
O         21.95300       38.30400      -22.23700
C         22.49500       41.00600      -21.47300
C         21.18400       40.77500      -20.77500
C         19.90100       41.11400      -21.12600
N         21.09400       40.14800      -19.54700
C         19.81400       40.10600      -19.17200
N         19.08300       40.72200      -20.08400
H         24.95000       40.66000      -22.68100
H         21.87200       39.78000      -19.01900
N         19.54100       36.38900      -25.64700
C         18.60300       36.48300      -24.53300
C         17.81300       35.18300      -24.26400
O         16.65200       35.25800      -23.91900
C         17.58500       37.61500      -24.71900
C         17.12900       38.25200      -23.39200
C         17.55100       39.36000      -22.73100
N         16.06800       37.74700      -22.65800
C         15.88000       38.51900      -21.58400
N         16.81400       39.47400      -21.57900
H         20.52900       36.48600      -25.45900
H         15.52500       36.92800      -22.89500
Zn        16.94800       40.94900      -20.22200
*

